Version 4
SHEET 1 3368 792
WIRE 16 -528 16 -592
WIRE 192 -528 192 -592
WIRE 16 -416 16 -448
WIRE 192 -416 192 -448
WIRE 656 0 560 0
WIRE 864 0 736 0
WIRE 1024 0 944 0
WIRE 1184 0 1024 0
WIRE 1296 16 1248 16
WIRE 1328 16 1296 16
WIRE 560 32 560 0
WIRE 1184 32 1168 32
WIRE 736 64 736 0
WIRE 768 64 736 64
WIRE 1024 80 1024 64
WIRE 1024 80 832 80
WIRE 1168 80 1168 32
WIRE 1296 80 1296 16
WIRE 1296 80 1168 80
WIRE 768 96 736 96
WIRE 1024 96 1024 80
WIRE 736 128 736 96
FLAG 736 128 0
FLAG 1024 160 0
FLAG 800 48 VCC
FLAG 1216 -16 -VCC
FLAG 800 112 -VCC
FLAG 1216 48 VCC
FLAG 560 0 Input
FLAG 560 112 0
FLAG 1328 16 4out
FLAG 16 -416 0
FLAG 16 -592 VCC
FLAG 192 -416 0
FLAG 192 -592 -VCC
SYMBOL res 752 -16 R90
WINDOW 0 0 56 VBottom 2
WINDOW 3 32 56 VTop 2
SYMATTR InstName R1
SYMATTR Value 10k
SYMBOL res 960 -16 R90
WINDOW 0 0 56 VBottom 2
WINDOW 3 32 56 VTop 2
SYMATTR InstName R2
SYMATTR Value 10k
SYMBOL diode 1040 64 R180
WINDOW 0 24 64 Left 2
WINDOW 3 24 0 Left 2
SYMATTR InstName D3
SYMBOL diode 1040 160 R180
WINDOW 0 24 64 Left 2
WINDOW 3 24 0 Left 2
SYMATTR InstName D4
SYMBOL voltage 560 16 R0
WINDOW 123 0 0 Left 0
WINDOW 39 0 0 Left 0
SYMATTR InstName V1
SYMATTR Value SINE(0 1 1k)
SYMBOL OpAmps\\AD8065 800 16 R0
SYMATTR InstName U4
SYMBOL voltage 16 -544 R0
WINDOW 123 0 0 Left 2
WINDOW 39 0 0 Left 2
SYMATTR InstName V2
SYMATTR Value 15
SYMBOL voltage 192 -432 R180
WINDOW 123 0 0 Left 2
WINDOW 39 0 0 Left 2
SYMATTR InstName V3
SYMATTR Value 15
SYMBOL OpAmps\\AD8065 1216 80 M180
SYMATTR InstName U2
TEXT 40 -280 Left 2 !.tran 0 5m 0 50u
TEXT 40 -256 Left 2 ;.op
TEXT 40 -64 Left 2 ;.dc V1 -15 15 0.01
